<?xml version="1.0" encoding="UTF-8"?>
<net version="1.0" xmlns:xsi="http://www.w3.org/2001/XMLSchema-instance" xsi:noNamespaceSchemaLocation="http://sumo.dlr.de/xsd/net_file.xsd">
    <location netOffset="0.0,-17.6" alignB="true" xAxis="DOWN" yAxis="RIGHT" convBoundary="0.00,0.00,3000.00,0.00" origBoundary="-100000.00,-100000.00,100000.00,100000.00" projParameter="!"/>
    <edge id="Lane" from="gneJ0" to="gneJ1" priority="1" length="3000">
        <lane id="Lane_0" index="0" speed="20" length="3000.00" shape="0.00,-11.20 3000.00,-11.20"/>
        <lane id="Lane_1" index="1" speed="20" length="3000.00" shape="0.00,-8.00 3000.00,-8.00"/>
        <lane id="Lane_2" index="2" speed="20" length="3000.00" shape="0.00,-4.80 3000.00,-4.80"/>
        <lane id="Lane_3" index="3" speed="20" length="3000.00" shape="0.00,-14.40 3000.00,-14.4"/>
        <lane id="Lane_4" index="4" speed="20" length="3000.00" shape="0.00,-17.60 3000.00,-17.6"/>
    </edge>
    <junction id="gneJ0" type="dead_end" x="0.00" y="0.00" incLanes="" intLanes="" shape="0.00,0.00 0.00,-18.00"/>
    <junction id="gneJ1" type="dead_end" x="3000.00" y="0.00" incLanes="Lane_0 Lane_1 Lane_2 Lane_3 Lane_4" intLanes="" shape="3000.00,-18.00 3000.00,0.00"/>
</net>
