<routes>
    <!-- id、加速度、减速度、加速度噪声、车辆最大速度、车辆的长度、车辆的颜色、车辆的类型、车辆之间的最小间隔、车辆的时距感应参数   -->
    <vType id="car" carFollowModel="IDM" accel="5.0" decel="2.0" sigma="0.5" maxSpeed="20" length="5.0" color="255,0,0" vClass="passenger" minGap="0" tau="0.5"/>
    <vType id="car1" laneChangeModel="LC2013" lcStrategic="0" lcCooperative="0" lcSpeedGain="0" lcPushy="0" accel="2.5" decel="4.5" sigma="1.0" maxSpeed="15" length="5.0" color="204, 102, 0" vClass="passenger"/>
    <vType id="car2" carFollowModel="IDM" accel="2.5" decel="4.5" sigma="1.0" maxSpeed="20" length="5.0" color="255, 255, 255" vClass="passenger"/>
    <vType id="car3" carFollowModel="IDM" accel="2.5" decel="4.5" sigma="1.0" maxSpeed="20" length="5.0" color="255, 255, 255" vClass="passenger"/>
    <vType id="car4" carFollowModel="IDM" accel="2.5" decel="4.5" sigma="1.0" maxSpeed="20" length="5.0" color="255, 255, 255" vClass="passenger"/>
    <!--定义车辆行驶的边缘（道路），此处为 "Lane"，表示车辆沿着名为 "Lane" 的边缘行驶-->
    <route id="Straight" edges="Lane"/>
    <!--第一个参数：id、车辆类型、车辆所跟随的车辆路线,对应上方的route标签的id、车辆出发时间，即车辆在仿真时间轴上的出发时间、车辆出发时间的延迟时间（秒）、车辆出发的车道、车辆在出发车道上的相对位置（米）
    车辆的目的地路口 ID、车辆到达时所在的车道索引-->
    <vehicle id="Car" type="car" route="Straight" depart="0" departDelay="0" departLane="1" departPos="200"  destination="Lane" arrivalLane="0" departSpeed="10"/>
    <vehicle id="CarF" type="car1" route="Straight" depart="0" departDelay="0" departLane="1" departPos="232" destination="Lane" arrivalLane="0" departSpeed="5"/>
<!--    <vehicle id="Car0" type="Car2" route="Straight" depart="0" departDelay="0" departLane="0" departPos="115" destination="Lane" arrivalLane="0" departSpeed="5"/>-->
    <vehicle id="Car0" type="car2" route="Straight" depart="0" departDelay="0" departLane="0" departPos="115" destination="Lane" arrivalLane="0" departSpeed="5">
         <param key="MOBIL/laneChangeModel" value="LC2013"/>
         <param key="MOBIL/minGap" value="2.0"/>
         <param key="MOBIL/minDecel" value="3.0"/>
         <param key="MOBIL/decelBias" value="0.1"/>
         <param key="MOBIL/bSafeDecel" value="3.0"/>
    </vehicle>
<!--    <vehicle id="Car1" type="Car2" route="Straight" depart="0" departDelay="0" departLane="1" departPos="400"  destination="Lane" arrivalLane="0" departSpeed="3"/>-->
<!--    <vehicle id="Car2" type="Car2" route="Straight" depart="0" departDelay="0" departLane="0" departPos="300" destination="Lane" arrivalLane="0" departSpeed="3"/>-->
    <vehicle id="Car1" type="car2" route="Straight" depart="0" departDelay="0" departLane="1" departPos="400" destination="Lane" arrivalLane="0" departSpeed="3">
         <param key="MOBIL/laneChangeModel" value="LC2013"/>
         <param key="MOBIL/minGap" value="2.0"/>
         <param key="MOBIL/minDecel" value="3.0"/>
         <param key="MOBIL/decelBias" value="0.1"/>
         <param key="MOBIL/bSafeDecel" value="3.0"/>
    </vehicle>
    <vehicle id="Car2" type="car2" route="Straight" depart="0" departDelay="0" departLane="0" departPos="300" destination="Lane" arrivalLane="0" departSpeed="3">
         <param key="MOBIL/laneChangeModel" value="LC2013"/>
         <param key="MOBIL/minGap" value="2.0"/>
         <param key="MOBIL/minDecel" value="3.0"/>
         <param key="MOBIL/decelBias" value="0.1"/>
         <param key="MOBIL/bSafeDecel" value="3.0"/>
    </vehicle>

    <vehicle id="Car3" type="car3" route="Straight" depart="0" departDelay="0" departLane="1" departPos="120" destination="Lane" arrivalLane="1" departSpeed="3"/>
    <vehicle id="Car4" type="car3" route="Straight" depart="0" departDelay="0" departLane="1" departPos="650" destination="Lane" arrivalLane="1" departSpeed="5"/>
    <vehicle id="Car5" type="car4" route="Straight" depart="0" departDelay="0" departLane="1" departPos="280" destination="Lane" arrivalLane="1" departSpeed="2"/>
    <vehicle id="Car6" type="car4" route="Straight" depart="0" departDelay="0" departLane="1" departPos="770" destination="Lane" arrivalLane="1" departSpeed="3"/>
    <vehicle id="Car7" type="car4" route="Straight" depart="0" departDelay="0" departLane="2" departPos="200" destination="Lane" arrivalLane="2" departSpeed="3"/>
    <vehicle id="Car8" type="car4" route="Straight" depart="0" departDelay="0" departLane="2" departPos="240" destination="Lane" arrivalLane="2" departSpeed="5"/>
<!--    <vehicle id="Car9" type="Car2" route="Straight" depart="0" departDelay="0" departLane="0" departPos="400" destination="Lane" arrivalLane="0" departSpeed="5"/>-->
<!--    <vehicle id="Car10" type="Car2" route="Straight" depart="0" departDelay="0" departLane="0" departPos="440"  destination="Lane" arrivalLane="0" departSpeed="3"/>-->
<!--    <vehicle id="Car11" type="Car2" route="Straight" depart="0" departDelay="0" departLane="0" departPos="480" destination="Lane" arrivalLane="0" departSpeed="3"/>-->
    <vehicle id="Car9" type="car2" route="Straight" depart="0" departDelay="0" departLane="0" departPos="400" destination="Lane" arrivalLane="0" departSpeed="5">
         <param key="MOBIL/laneChangeModel" value="LC2013"/>
         <param key="MOBIL/minGap" value="2.0"/>
         <param key="MOBIL/minDecel" value="3.0"/>
         <param key="MOBIL/decelBias" value="0.1"/>
         <param key="MOBIL/bSafeDecel" value="3.0"/>
    </vehicle>
    <vehicle id="Car10" type="car2" route="Straight" depart="0" departDelay="0" departLane="0" departPos="440"  destination="Lane" arrivalLane="0" departSpeed="3">
         <param key="MOBIL/laneChangeModel" value="LC2013"/>
         <param key="MOBIL/minGap" value="2.0"/>
         <param key="MOBIL/minDecel" value="3.0"/>
         <param key="MOBIL/decelBias" value="0.1"/>
         <param key="MOBIL/bSafeDecel" value="3.0"/>
    </vehicle>
    <vehicle id="Car11" type="car2" route="Straight" depart="0" departDelay="0" departLane="0" departPos="480" destination="Lane" arrivalLane="0" departSpeed="3">
         <param key="MOBIL/laneChangeModel" value="LC2013"/>
         <param key="MOBIL/minGap" value="2.0"/>
         <param key="MOBIL/minDecel" value="3.0"/>
         <param key="MOBIL/decelBias" value="0.1"/>
         <param key="MOBIL/bSafeDecel" value="3.0"/>
    </vehicle>


    <vehicle id="Car12" type="car3" route="Straight" depart="0" departDelay="0" departLane="0" departPos="520" destination="Lane" arrivalLane="1" departSpeed="3"/>
    <vehicle id="Car13" type="car3" route="Straight" depart="0" departDelay="0" departLane="1" departPos="510" destination="Lane" arrivalLane="1" departSpeed="5"/>
    <vehicle id="Car14" type="car4" route="Straight" depart="0" departDelay="0" departLane="1" departPos="550" destination="Lane" arrivalLane="1" departSpeed="2"/>
    <vehicle id="Car15" type="car4" route="Straight" depart="0" departDelay="0" departLane="1" departPos="590" destination="Lane" arrivalLane="1" departSpeed="3"/>
    <vehicle id="Car16" type="car4" route="Straight" depart="0" departDelay="0" departLane="2" departPos="610" destination="Lane" arrivalLane="2" departSpeed="3"/>
    <vehicle id="Car17" type="car4" route="Straight" depart="0" departDelay="0" departLane="2" departPos="650" destination="Lane" arrivalLane="2" departSpeed="5"/>
<!--    <vehicle id="Car19" type="Car2" route="Straight" depart="0" departDelay="0" departLane="2" departPos="400" destination="Lane" arrivalLane="0" departSpeed="5"/>-->
<!--    <vehicle id="Car20" type="Car2" route="Straight" depart="0" departDelay="0" departLane="2" departPos="440"  destination="Lane" arrivalLane="0" departSpeed="3"/>-->
<!--    <vehicle id="Car21" type="Car2" route="Straight" depart="0" departDelay="0" departLane="2" departPos="480" destination="Lane" arrivalLane="0" departSpeed="3"/>-->
    <vehicle id="Car19" type="car2" route="Straight" depart="0" departDelay="0" departLane="2" departPos="400" destination="Lane" arrivalLane="0" departSpeed="5">
         <param key="MOBIL/laneChangeModel" value="LC2013"/>
         <param key="MOBIL/minGap" value="2.0"/>
         <param key="MOBIL/minDecel" value="3.0"/>
         <param key="MOBIL/decelBias" value="0.1"/>
         <param key="MOBIL/bSafeDecel" value="3.0"/>
    </vehicle>
    <vehicle id="Car20" type="car2" route="Straight" depart="0" departDelay="0" departLane="2" departPos="440"  destination="Lane" arrivalLane="0" departSpeed="3">
         <param key="MOBIL/laneChangeModel" value="LC2013"/>
         <param key="MOBIL/minGap" value="2.0"/>
         <param key="MOBIL/minDecel" value="3.0"/>
         <param key="MOBIL/decelBias" value="0.1"/>
         <param key="MOBIL/bSafeDecel" value="3.0"/>
    </vehicle>
    <vehicle id="Car21" type="car2" route="Straight" depart="0" departDelay="0" departLane="2" departPos="480" destination="Lane" arrivalLane="0" departSpeed="3">
         <param key="MOBIL/laneChangeModel" value="LC2013"/>
         <param key="MOBIL/minGap" value="2.0"/>
         <param key="MOBIL/minDecel" value="3.0"/>
         <param key="MOBIL/decelBias" value="0.1"/>
         <param key="MOBIL/bSafeDecel" value="3.0"/>
    </vehicle>


    <vehicle id="Car22" type="car3" route="Straight" depart="0" departDelay="0" departLane="2" departPos="710" destination="Lane" arrivalLane="1" departSpeed="3"/>
    <vehicle id="Car23" type="car3" route="Straight" depart="0" departDelay="0" departLane="0" departPos="560" destination="Lane" arrivalLane="1" departSpeed="5"/>
    <vehicle id="Car24" type="car4" route="Straight" depart="0" departDelay="0" departLane="0" departPos="350" destination="Lane" arrivalLane="1" departSpeed="2"/>
    <vehicle id="Car25" type="car4" route="Straight" depart="0" departDelay="0" departLane="0" departPos="620" destination="Lane" arrivalLane="1" departSpeed="3"/>
    <vehicle id="Car26" type="car4" route="Straight" depart="0" departDelay="0" departLane="1" departPos="450" destination="Lane" arrivalLane="2" departSpeed="3"/>
    <vehicle id="Car27" type="car4" route="Straight" depart="0" departDelay="0" departLane="1" departPos="690" destination="Lane" arrivalLane="2" departSpeed="5"/>
<!--    <vehicle id="Car28" type="Car2" route="Straight" depart="0" departDelay="0" departLane="1" departPos="350" destination="Lane" arrivalLane="0" departSpeed="3"/>-->
    <vehicle id="Car28" type="car2" route="Straight" depart="0" departDelay="0" departLane="1" departPos="350" destination="Lane" arrivalLane="0" departSpeed="3">
         <param key="MOBIL/laneChangeModel" value="LC2013"/>
         <param key="MOBIL/minGap" value="2.0"/>
         <param key="MOBIL/minDecel" value="3.0"/>
         <param key="MOBIL/decelBias" value="0.1"/>
         <param key="MOBIL/bSafeDecel" value="3.0"/>
    </vehicle>
    <vehicle id="Car29" type="car3" route="Straight" depart="0" departDelay="0" departLane="2" departPos="40" destination="Lane" arrivalLane="1" departSpeed="3"/>
    <vehicle id="Car30" type="car3" route="Straight" depart="0" departDelay="0" departLane="0" departPos="70" destination="Lane" arrivalLane="1" departSpeed="5"/>
    <vehicle id="Car31" type="car4" route="Straight" depart="0" departDelay="0" departLane="0" departPos="160" destination="Lane" arrivalLane="1" departSpeed="2"/>
    <vehicle id="Car32" type="car4" route="Straight" depart="0" departDelay="0" departLane="2" departPos="120" destination="Lane" arrivalLane="1" departSpeed="3"/>
    <vehicle id="Car33" type="car4" route="Straight" depart="0" departDelay="0" departLane="1" departPos="160" destination="Lane" arrivalLane="2" departSpeed="3"/>
    <vehicle id="Car34" type="car4" route="Straight" depart="0" departDelay="0" departLane="2" departPos="80" destination="Lane" arrivalLane="2" departSpeed="5"/>
<!--    <vehicle id="Car35" type="Car2" route="Straight" depart="0" departDelay="0" departLane="2" departPos="160" destination="Lane" arrivalLane="1" departSpeed="3"/>-->
    <vehicle id="Car35" type="car2" route="Straight" depart="0" departDelay="0" departLane="2" departPos="160" destination="Lane" arrivalLane="1" departSpeed="3">
         <param key="MOBIL/laneChangeModel" value="LC2013"/>
         <param key="MOBIL/minGap" value="2.0"/>
         <param key="MOBIL/minDecel" value="3.0"/>
         <param key="MOBIL/decelBias" value="0.1"/>
         <param key="MOBIL/bSafeDecel" value="3.0"/>
    </vehicle>
</routes>

